* inv

***********************************************************************
* Set supply and library
***********************************************************************
.INCLUDE mos_model3
.options temp=27
.options post

***********************************************************************
* Define power supply
***********************************************************************
Vdd     Vdd     0       2.5

***********************************************************************
* Define Subcircuits
***********************************************************************
.subckt inv In Out Vdd
m1      Out In 0 0      cmosn l=0.25u w=3u
m2      Out In Vdd Vdd  cmosp l=0.25u w=6u
.ends

***********************************************************************
* Stimulus
***********************************************************************
* Format of pulse input:
* pulse v_initial v_final t_delay t_rise t_fall t_pulsewidth t_period
Vin     a      0       PULSE(0 2.5 1ns 0.1ns 0.1ns 4ns 10ns)

***********************************************************************
* Top level simulation netlist
***********************************************************************
x1      a       y       Vdd     inv
c       y       0       240f

.tran .001ns 12ns
.plot TRAN V(In) V(Out) V(a) V(y)

***********************************************************************
* End of Deck
***********************************************************************
.end
